/*--------------------------------*- C++ -*----------------------------------*\
| =========                 |                                                 |
| \\      /  F ield         | OpenFOAM: The Open Source CFD Toolbox           |
|  \\    /   O peration     | Version:  2312                                  |
|   \\  /    A nd           | Website:  www.openfoam.com                      |
|    \\/     M anipulation  |                                                 |
\*---------------------------------------------------------------------------*/
FoamFile
{
    version     2.0;
    format      ascii;
    arch        "LSB;label=32;scalar=64";
    class       polyBoundaryMesh;
    location    "constant/polyMesh";
    object      boundary;
}
// * * * * * * * * * * * * * * * * * * * * * * * * * * * * * * * * * * * * * //

5
(
    inlet
    {
        type            patch;
        nFaces          100;
        startFace       39700;
    }
    outlet
    {
        type            patch;
        nFaces          100;
        startFace       39800;
    }
    cylinder
    {
        type            wall;
        inGroups        1(wall);
        nFaces          200;
        startFace       39900;
    }
    axis
    {
        type            symmetry;
        inGroups        1(symmetry);
        nFaces          200;
        startFace       40100;
    }
    empty
    {
        type            empty;
        inGroups        1(empty);
        nFaces          40000;
        startFace       40300;
    }
)

// ************************************************************************* //
