/*--------------------------------*- C++ -*----------------------------------*\
| =========                 |                                                 |
| \\      /  F ield         | OpenFOAM: The Open Source CFD Toolbox           |
|  \\    /   O peration     | Version:  v2406                                 |
|   \\  /    A nd           | Website:  www.openfoam.com                      |
|    \\/     M anipulation  |                                                 |
\*---------------------------------------------------------------------------*/
FoamFile
{
    version     2.0;
    format      ascii;
    class       dictionary;
    location    "system";
    object      blockMeshDict;
}

// * * * * * * * * * * * * * * * * * * * * * * * * * * * * * * * * * * * * * //

scale 0.3048;

vertices
(
    (-2.00000000000000E+00	0.00000000000000E+00	 5.00000000000000E-02)
    (-5.00000000000000E-01	0.00000000000000E+00	 5.00000000000000E-02)
    (0.00000000000000E+00	5.00000000000000E-01	 5.00000000000000E-02)
    (5.00000000000000E-01	0.00000000000000E+00	 5.00000000000000E-02)
    (2.00000000000000E+00	0.00000000000000E+00	 5.00000000000000E-02)
    (0.00000000000000E+00	2.00000000000000E+00	 5.00000000000000E-02)
    (-2.00000000000000E+00	0.00000000000000E+00	-5.00000000000000E-02)
    (-5.00000000000000E-01	0.00000000000000E+00	-5.00000000000000E-02)
    (0.00000000000000E+00	5.00000000000000E-01	-5.00000000000000E-02)
    (5.00000000000000E-01	0.00000000000000E+00	-5.00000000000000E-02)
    (2.00000000000000E+00	0.00000000000000E+00	-5.00000000000000E-02)
    (0.00000000000000E+00	2.00000000000000E+00	-5.00000000000000E-02)

);

edges
(
    arc 1	2	(-3.53553390593274E-01	3.53553390593274E-01	 5.00000000000000E-02)
    arc 2	3	(3.53553390593274E-01	3.53553390593274E-01	 5.00000000000000E-02)
    arc 0	5	(-1.41421356237310E+00	1.41421356237309E+00	 5.00000000000000E-02)
    arc 5	4	(1.41421356237310E+00	1.41421356237309E+00	 5.00000000000000E-02)
    arc 7	8	(-3.53553390593274E-01	3.53553390593274E-01	-5.00000000000000E-02)
    arc 8	9	(3.53553390593274E-01	3.53553390593274E-01	-5.00000000000000E-02)
    arc 6	11	(-1.41421356237310E+00	1.41421356237309E+00	-5.00000000000000E-02)
    arc 11	10	(1.41421356237310E+00	1.41421356237309E+00	-5.00000000000000E-02)
);

blocks
(
	hex (6 7 8 11 0 1 2 5) uniGasZone (100 100 1) simpleGrading (0.2 1 1)
	hex (2 5 4 3 8 11 10 9) uniGasZone (100 100 1) simpleGrading (5 1 1)
);

boundary
(

    inlet
    {
        type patch;
        faces (
			  (0 5 11 6)
              );
    }
    outlet
    {
        type patch;
        faces (
			  (4 5 11 10)
              );
    }
    cylinder
    {
        type wall;
        faces (
			  (1 2 8 7)
			  (2 3 9 8)
              );
    }
    axis
    {
		type symmetry;
        faces (
			  (0 1 7 6)
			  (3 4 10 9)
              );
    }
    empty
    {
        type empty;
        faces (
			  (0 5 2 1)
			  (2 5 4 3)
			  (6 11 8 7)
			  (8 9 10 11)
              );    
    }

);

mergePatchPairs
(
);

// ************************************************************************* //
