/*--------------------------------*- C++ -*----------------------------------*\
| =========                 |                                                 |
| \\      /  F ield         | OpenFOAM: The Open Source CFD Toolbox           |
|  \\    /   O peration     | Version:  v2306                                 |
|   \\  /    A nd           | Website:  www.openfoam.com                      |
|    \\/     M anipulation  |                                                 |
\*---------------------------------------------------------------------------*/
FoamFile
{
    version     2.0;
    format      ascii;
    class       dictionary;
    location    "system";
    object      uniGasInitialiseDict;
}
// * * * * * * * * * * * * * * * * * * * * * * * * * * * * * * * * * * * * * //

configurations
(
    configuration
    {
    
        type        uniGasMeshFill;
		numberDensities{Ar	        4.24700E+20;}
        translationalTemperature    200;
	    rotationalTemperature		200;
		vibrationalTemperature		200;
        electronicTemperature       200;
        velocity 			        (2634.7 0 0);

    }
);

// ************************************************************************* //
