/*---------------------------------------------------------------------------*\
| =========                 |                                                 |
| \\      /  F ield         | OpenFOAM: The Open Source CFD Toolbox           |
|  \\    /   O peration     | Version:  1.3                                   |
|   \\  /    A nd           | Web:      http://www.openfoam.org               |
|    \\/     M anipulation  |                                                 |
\*---------------------------------------------------------------------------*/
FoamFile
{
    version     2.0;
    format      ascii;
    class       dictionary;
    location    "system";
    object      boundariesDict;
}
// * * * * * * * * * * * * * * * * * * * * * * * * * * * * * * * * * * * * * //

uspPatchBoundaries
(
	boundary
	{
		patchBoundaryProperties
		{
			patch			walls;
		}

		boundaryModel		uspDiffuseWallPatch;

		uspDiffuseWallPatchProperties
		{
			velocity 			(0 0 0);
			temperature			300;
		}
	}

	boundary
	{
		patchBoundaryProperties
		{
			patch			outlet;
		}

		boundaryModel		uspDeletionPatch;

		uspDeletionPatchProperties
		{
			allSpecies	true;
		}
	}

	boundary
	{
		patchBoundaryProperties
		{
			patch			inlet;
		}

		boundaryModel		uspDeletionPatch;

		uspDeletionPatchProperties
		{
			allSpecies		true;
		}
	}
);

uspCyclicBoundaries
(

);

uspGeneralBoundaries
(
	boundary
	{
		generalBoundaryProperties
		{
			patch			inlet;
		}

		boundaryModel		uspWangPressureInlet;

		uspWangPressureInletProperties
		{
			inletPressure 		252000;
			inletTemperature	300;
			typeIds				(N2);
			moleFractions
			{
				N2		1.0;
			}
		}
	}

	boundary
	{
		generalBoundaryProperties
		{
			patch			outlet;
		}

		boundaryModel		uspLiouFangPressureOutlet;

		uspLiouFangPressureOutletProperties
		{
			outletPressure 		100000;
			typeIds				(N2);
            moleFractions
			{
				N2		1.0;
			}
		}
	}
);


// ************************************************************************* //
