/*--------------------------------*- C++ -*----------------------------------*\
| =========                 |                                                 |
| \\      /  F ield         | OpenFOAM: The Open Source CFD Toolbox           |
|  \\    /   O peration     | Version:  2.3.1                                 |
|   \\  /    A nd           | Web:      www.OpenFOAM.org                      |
|    \\/     M anipulation  |                                                 |
\*---------------------------------------------------------------------------*/
FoamFile
{
    version     2.0;
    format      ascii;
    class       dictionary;
    object      topoSetDict;
}

// * * * * * * * * * * * * * * * * * * * * * * * * * * * * * * * * * * * * * //

actions
(
    {
        name    face1;
        type    faceSet;
        action  new;
        source  boxToFace;
        sourceInfo
        {
           box (0.499e-06 -0.2e-6 -0.5) (0.501e-06 0.2e-6 0.5);
        }
    }

    {
        name    face1;
        type    faceZoneSet;
        action  new;
        source  setToFaceZone;
        sourceInfo
        {
            faceSet     face1;
            option      all;
        }
    }

    {
        name    face2;
        type    faceSet;
        action  new;
        source  boxToFace;
        sourceInfo
        {
           box (1.499e-06 -0.2e-6 -0.5) (1.501e-06 0.2e-6 0.5);
        }
    }

    {
        name    face2;
        type    faceZoneSet;
        action  new;
        source  setToFaceZone;
        sourceInfo
        {
            faceSet     face2;
            option      all;
        }
    }

    {
        name    region1;
        type    cellSet;
        action  new;
        source  boxToCell;
        sourceInfo
        {
           box (0e-6 -0.2e-6 -0.5) (4e-7 0.2e-6 0.5);
        }
    }

    {
        name    region1;
        type    cellZoneSet;
        action  new;
        source  setToCellZone;
        sourceInfo
        {
            set          region1;
            option      all;
        }
    }
    
    {
        name    region2;
        type    cellSet;
        action  new;
        source  boxToCell;
        sourceInfo
        {
           box (4e-7 -0.2e-6 -0.5) (8e-7 0.2e-6 0.5);
        }
    }

    {
        name    region2;
        type    cellZoneSet;
        action  new;
        source  setToCellZone;
        sourceInfo
        {
            set          region2;
            option      all;
        }
    }
    
        {
        name    region3;
        type    cellSet;
        action  new;
        source  boxToCell;
        sourceInfo
        {
           box (8e-7 -0.2e-6 -0.5) (12e-7 0.2e-6 0.5);
        }
    }

    {
        name    region3;
        type    cellZoneSet;
        action  new;
        source  setToCellZone;
        sourceInfo
        {
            set          region3;
            option      all;
        }
    }
    
        {
        name    region4;
        type    cellSet;
        action  new;
        source  boxToCell;
        sourceInfo
        {
           box (12e-7 -0.2e-6 -0.5) (16e-7 0.2e-6 0.5);
        }
    }

    {
        name    region4;
        type    cellZoneSet;
        action  new;
        source  setToCellZone;
        sourceInfo
        {
            set          region4;
            option      all;
        }
    }
    
        {
        name    region5;
        type    cellSet;
        action  new;
        source  boxToCell;
        sourceInfo
        {
           box (16e-7 -0.2e-6 -0.5) (20e-7 0.2e-6 0.5);
        }
    }

    {
        name    region5;
        type    cellZoneSet;
        action  new;
        source  setToCellZone;
        sourceInfo
        {
            set          region5;
            option      all;
        }
    }

);

// ************************************************************************* //

