/*--------------------------------*- C++ -*----------------------------------*\
| =========                 |                                                 |
| \\      /  F ield         | OpenFOAM: The Open Source CFD Toolbox           |
|  \\    /   O peration     | Version:  v2306                                 |
|   \\  /    A nd           | Website:  www.openfoam.com                      |
|    \\/     M anipulation  |                                                 |
\*---------------------------------------------------------------------------*/
FoamFile
{
    version         2.0;
    format          ascii;

    root            "";
    case            "";
    instance        "";
    local           "";

    class           dictionary;
    object          blockMeshDict;
}

// * * * * * * * * * * * * * * * * * * * * * * * * * * * * * * * * * * * * * //

scale 1e-3;


vertices
(
    (0.0000000000000000E+00	0.0000000000000000E+00	 0.0000000000000000E+00)
    (0.0000000000000000E+00	3.7451866413327400E+00	 3.2683748670626800E-02)
    (4.0000000000000000E+00	3.7451866413327400E+00	 3.2683748670626800E-02)
    (8.9000000000000000E+01	2.9924128569398800E+01	 2.6114391377881100E-01)
    (8.9000000000000000E+01	7.4997144229812800E+01	 6.5449016237804500E-01)
    (1.3900000000000000E+02	7.4997144229812800E+01	 6.5449016237804500E-01)
    (1.3900000000000000E+02	2.9924128569398800E+01	 2.6114391377881100E-01)
    (1.3900000000000000E+02	0.0000000000000000E+00	 0.0000000000000000E+00)
    (8.9000000000000000E+01	0.0000000000000000E+00	 0.0000000000000000E+00)
    (4.0000000000000000E+00	0.0000000000000000E+00	 0.0000000000000000E+00)
    (0.0000000000000000E+00	3.7451866413327400E+00	-3.2683748670626800E-02)
    (4.0000000000000000E+00	3.7451866413327400E+00	-3.2683748670626800E-02)
    (8.9000000000000000E+01	2.9924128569398800E+01	-2.6114391377881100E-01)
    (8.9000000000000000E+01	7.4997144229812800E+01	-6.5449016237804500E-01)
    (1.3900000000000000E+02	7.4997144229812800E+01	-6.5449016237804500E-01)
    (1.3900000000000000E+02	2.9924128569398800E+01	-2.6114391377881100E-01)
);

blocks
(
	hex (0 9 11 10 0 9 2 1) uniGasZone (80 100 1) simpleGrading (1 1 1)
	hex (9 8 12 11 9 8 3 2) uniGasZone (500 100 1) simpleGrading (((0.08 0.3 1) (0.92 0.7 12)) 1 1)
	hex (8 7 15 12 8 7 6 3) uniGasZone (100 100 1) simpleGrading (0.5 1 1)
	hex (12 15 14 13 3 6 5 4) uniGasZone (100 100 1) simpleGrading (0.5 2 1)
);

edges
(
    polyLine 2 3
    (
        (4.0000000000000000E+00	3.7451866413327400E+00	3.2683748670626800E-02)
        (8.6579798566743300E+00	2.0602289290222300E+00	1.7979345482273500E-02)
        (8.7411809548974800E+00	2.0339967223991500E+00	1.7750420483214100E-02)
        (8.8263518223330700E+00	2.0151155146419200E+00	1.7585646679386900E-02)
        (8.9128442572523400E+00	2.0037290031423600E+00	1.7486278098932300E-02)
        (9.0000000000000000E+00	1.9999238461283400E+00	1.7453070996747900E-02)
        (9.0871557427476600E+00	2.0037290031423600E+00	1.7486278098932300E-02)
        (9.1736481776669300E+00	2.0151155146419200E+00	1.7585646679386900E-02)
        (9.2588190451025200E+00	2.0339967223991500E+00	1.7750420483214100E-02)
        (9.3420201433256700E+00	2.0602289290222300E+00	1.7979345482273500E-02)
        (8.9000000000000000E+01	2.9924128569398800E+01	2.6114391377881100E-01)
    )
    
    polyLine 11 12
    (
        (4.0000000000000000E+00	3.7451866413327400E+00	-3.2683748670626800E-02)
        (8.6579798566743300E+00	2.0602289290222300E+00	-1.7979345482273500E-02)
        (8.7411809548974800E+00	2.0339967223991500E+00	-1.7750420483214100E-02)
        (8.8263518223330700E+00	2.0151155146419200E+00	-1.7585646679386900E-02)
        (8.9128442572523400E+00	2.0037290031423600E+00	-1.7486278098932300E-02)
        (9.0000000000000000E+00	1.9999238461283400E+00	-1.7453070996747900E-02)
        (9.0871557427476600E+00	2.0037290031423600E+00	-1.7486278098932300E-02)
        (9.1736481776669300E+00	2.0151155146419200E+00	-1.7585646679386900E-02)
        (9.2588190451025200E+00	2.0339967223991500E+00	-1.7750420483214100E-02)
        (9.3420201433256700E+00	2.0602289290222300E+00	-1.7979345482273500E-02)
        (8.9000000000000000E+01	2.9924128569398800E+01	-2.6114391377881100E-01)
    )

);

boundary
(
    inlet
    {
        type patch;
        faces (
			  (0 1 10 0)
              );
    }
    outlet
    {
        type patch;
        faces (
			  (3 4 13 12)
			  (4 5 14 13)
              );
    }
    nozzle
    {
        type wall;
        faces (
			  (1 2 11 10)
			  (2 3 12 11)
			  );
    }
    surface
    {
        type wall;
        faces (
			  (6 5 14 15)
			  (7 15 6 7)
			  );
    }
    axis
    {
		type symmetry;
        faces (
			  (0 9 9 0)
			  (9 8 8 9)
			  (8 7 7 8)
              );
    }
    frontWedge
    {
        type symmetryPlane;
        faces (
			  (0 9 2 1)
			  (9 8 3 2)
			  (8 7 6 3)
			  (3 6 5 4)
              );    
    }
    backWedge
    {
        type symmetryPlane;
        faces (
              (0 10 11 9)
			  (9 11 12 8)
			  (8 12 15 7)
			  (12 13 14 15)
              );    
    }
);

mergePatchPairs
(
);


// ************************************************************************* //
