/*--------------------------------*- C++ -*----------------------------------*\
| =========                 |                                                 |
| \\      /  F ield         | OpenFOAM: The Open Source CFD Toolbox           |
|  \\    /   O peration     | Version:  v2306                                 |
|   \\  /    A nd           | Website:  www.openfoam.com                      |
|    \\/     M anipulation  |                                                 |
\*---------------------------------------------------------------------------*/
FoamFile
{
    version     2.0;
    format      ascii;
    class       dictionary;
    location    "system";
    object      boundariesDict;
}
// * * * * * * * * * * * * * * * * * * * * * * * * * * * * * * * * * * * * * //

uniGasPatchBoundaries
(

    boundary
    {
        patchBoundaryProperties
        {
            patch       nozzle;
        }

        boundaryModel   uniGasDiffuseWallPatch;

        uniGasDiffuseWallPatchProperties
        {
            velocity 	    (0 0 0);
            temperature     300;
        }
    }

    boundary
    {
        patchBoundaryProperties
        {
            patch       surface;
        }

        boundaryModel   uniGasDiffuseWallPatch;

        uniGasDiffuseWallPatchProperties
        {
            velocity 	    (0 0 0);
            temperature     300;
        }
    }

	boundary
    {
        patchBoundaryProperties
        {
            patch       inlet;
        }

        boundaryModel   uniGasDeletionPatch;

        uniGasDeletionPatchProperties
        {
          allSpecies        yes;
        }
    }

	boundary
    {
        patchBoundaryProperties
        {
            patch       outlet;
        }

        boundaryModel   uniGasDeletionPatch;

        uniGasDeletionPatchProperties
        {
          allSpecies        yes;
        }
    }

);

uniGasGeneralBoundaries
(

    boundary
    {
        generalBoundaryProperties
        {
            patch       inlet;
        }

        boundaryModel   uniGasLiouFangPressureInletPatch;

        uniGasLiouFangPressureInletPatchProperties
        {
            typeIds				        (Ar);
            moleFractions               {Ar     1;}
            theta                       1e-3;
            inletPressure               1000;
			inletTemperature		    300;
        }
    }

);

uniGasCyclicBoundaries
(
);

// ************************************************************************* //

