/*--------------------------------*- C++ -*----------------------------------*\
| =========                 |                                                 |
| \\      /  F ield         | OpenFOAM: The Open Source CFD Toolbox           |
|  \\    /   O peration     | Version:  v2306                                 |
|   \\  /    A nd           | Website:  www.openfoam.com                      |
|    \\/     M anipulation  |                                                 |
\*---------------------------------------------------------------------------*/
FoamFile
{
    version         2.0;
    format          ascii;

    root            "";
    case            "";
    instance        "";
    local           "";

    class           dictionary;
    object          blockMeshDict;
}

// * * * * * * * * * * * * * * * * * * * * * * * * * * * * * * * * * * * * * //

scale 1e-2;


vertices
(
    (-2.5000000000000000E+00	0.0000000000000000E+00	 0.0000000000000000E+00)
    (-2.5000000000000000E+00	2.4996192378909800E+00	 4.3631016093208800E-02)
    (0.0000000000000000E+00	    2.4996192378909800E+00	 4.3631016093208800E-02)
    (0.0000000000000000E+00	    1.4997715427345900E+01	 2.6178609655925300E-01)
    (2.0000000000000000E+01	    1.4997715427345900E+01	 2.6178609655925300E-01)
    (2.0000000000000000E+01	    2.4996192378909800E+00	 4.3631016093208800E-02)
    (2.0000000000000000E+01	    0.0000000000000000E+00	 0.0000000000000000E+00)
    (0.0000000000000000E+00	    0.0000000000000000E+00	 0.0000000000000000E+00)
    (-2.5000000000000000E+00	2.4996192378909800E+00	-4.3631016093208800E-02)
    (0.0000000000000000E+00	    2.4996192378909800E+00	-4.3631016093208800E-02)
    (0.0000000000000000E+00	    1.4997715427345900E+01	-2.6178609655925300E-01)
    (2.0000000000000000E+01	    1.4997715427345900E+01	-2.6178609655925300E-01)
    (2.0000000000000000E+01	    2.4996192378909800E+00	-4.3631016093208800E-02)
);

blocks
(
	hex (0 7 9 8 0 7 2 1) uniGasZone (50 50 1) simpleGrading (1 1 1)
	hex (7 6 12 9 7 6 5 2) uniGasZone (100 50 1) simpleGrading (10 1 1)
	hex (9 12 11 10 2 5 4 3) uniGasZone (100 100 1) simpleGrading (10 5 1)
);

edges
(
);

boundary
(
    vessel
    {
        type wall;
        faces (
			  (0 1 8 0)
			  (1 2 9 8)
              );
    }
    outlet
    {
        type patch;
        faces (
			  (2 3 10 9)
			  (3 4 11 10)
			  (4 5 12 11)
			  (5 6 6 12)
              );
    }
    axis
    {
		type symmetry;
        faces (
			  (0 7 7 0)
			  ( 7 6 6 7)
              );
    }
    frontWedge
    {
        type symmetryPlane;
        faces (
			  (0 7 2 1)
			  (7 6 5 2)
			  (2 5 4 3)
              );    
    }
    backWedge
    {
        type symmetryPlane;
        faces (
              (0 8 9 7)
              (7 9 12 6)
              (9 10 11 12)
              );    
    }
);

mergePatchPairs
(
);


// ************************************************************************* //
