/*--------------------------------*- C++ -*----------------------------------*\
| =========                 |                                                 |
| \\      /  F ield         | OpenFOAM: The Open Source CFD Toolbox           |
|  \\    /   O peration     | Version:  v2406                                 |
|   \\  /    A nd           | Website:  www.openfoam.com                      |
|    \\/     M anipulation  |                                                 |
\*---------------------------------------------------------------------------*/
FoamFile
{
    version     2.0;
    format      ascii;
    class       dictionary;
    location    "system";
    object      boundariesDict;
}
// * * * * * * * * * * * * * * * * * * * * * * * * * * * * * * * * * * * * * //

uniGasPatchBoundaries
(

    boundary
    {
        patchBoundaryProperties
        {
            patch       vessel;
        }

        boundaryModel   uniGasDiffuseWallPatch;

        uniGasDiffuseWallPatchProperties
        {
            velocity 	    (0 0 0);
            temperature     300;
        }
    }

	boundary
    {
        patchBoundaryProperties
        {
            patch       outlet;
        }

        boundaryModel   uniGasDeletionPatch;

        uniGasDeletionPatchProperties
        {
          allSpecies        yes;
        }
    }

);

uniGasGeneralBoundaries
(
);

uniGasCyclicBoundaries
(
);

// ************************************************************************* //

