/*--------------------------------*- C++ -*----------------------------------*\
| =========                 |                                                 |
| \\      /  F ield         | OpenFOAM: The Open Source CFD Toolbox           |
|  \\    /   O peration     | Version:  v2306                                 |
|   \\  /    A nd           | Website:  www.openfoam.com                      |
|    \\/     M anipulation  |                                                 |
\*---------------------------------------------------------------------------*/
FoamFile
{
    version     2.0;
    format      ascii;
    class       dictionary;
    object      topoSetDict;
}

// * * * * * * * * * * * * * * * * * * * * * * * * * * * * * * * * * * * * * //

internalFacesOnly false;

baffles
{
    slit  // group name
    {
        //- Use predefined faceZone to select faces and orientation.
        type        faceZone;  
        zoneName    sepWallFaceZone;

        patches
        {
            master
            {
                name        vessel;    // patch name
                type        wall;      // patch type
            }
            slave
            {
                name        vessel;  // patch name
                type        wall;      // patch type
            }
        }
    }
}

// ************************************************************************* //
