/*--------------------------------*- C++ -*----------------------------------*\
| =========                 |                                                 |
| \\      /  F ield         | OpenFOAM: The Open Source CFD Toolbox           |
|  \\    /   O peration     | Version:  v2406                                 |
|   \\  /    A nd           | Website:  www.openfoam.com                      |
|    \\/     M anipulation  |                                                 |
\*---------------------------------------------------------------------------*/
FoamFile
{
    version     2.0;
    format      ascii;
    class       dictionary;
    location    "system";
    object      controlDict;
}
// * * * * * * * * * * * * * * * * * * * * * * * * * * * * * * * * * * * * * //

application         uniGasFoam;

nTerminalOutputs    1;

startFrom           latestTime;

startTime           0;

stopAt              endTime;

endTime             4e-3;

deltaT              5e-9;

writeControl        adjustableRunTime;

writeInterval       1e-4;

purgeWrite          5;

writeFormat         ascii;

writePrecision      10;

writeCompression    off;

timeFormat          general;

timePrecision       6;

runTimeModifiable   on;

// ************************************************************************* //
