/*--------------------------------*- C++ -*----------------------------------*\
| =========                 |                                                 |
| \\      /  F ield         | OpenFOAM: The Open Source CFD Toolbox           |
|  \\    /   O peration     | Version:  v2406                                 |
|   \\  /    A nd           | Website:  www.openfoam.com                      |
|    \\/     M anipulation  |                                                 |
\*---------------------------------------------------------------------------*/
FoamFile
{
    version     2.0;
    format      ascii;
    class       dictionary;
    location    "system";
    object      fvSchemes;
}
// * * * * * * * * * * * * * * * * * * * * * * * * * * * * * * * * * * * * * //

ddtSchemes
{
    default         none;
}

gradSchemes
{
    default         leastSquares;
}

divSchemes
{
    default         none;
}

laplacianSchemes
{
    default         none;
}

interpolationSchemes
{
    default         	linear;
    Prandtl         	cellPoint;
    collFreq       	    cellPoint;
    p               	cellPoint;
    translationalT      cellPoint;
    UMean		        cellPoint;
    heatFluxVector      cellPoint;
    shearStressTensor   cellPoint;
}

snGradSchemes
{
    default         none;
}

fluxRequired
{
    default         no;
}

// ************************************************************************* //
