/*--------------------------------*- C++ -*----------------------------------*\
| =========                 |                                                 |
| \\      /  F ield         | OpenFOAM: The Open Source CFD Toolbox           |
|  \\    /   O peration     | Version:  v2406                                 |
|   \\  /    A nd           | Website:  www.openfoam.com                      |
|    \\/     M anipulation  |                                                 |
\*---------------------------------------------------------------------------*/
FoamFile
{
    version     2.0;
    format      ascii;
    class       dictionary;
    location    "system";
    object      hybridDecompositionProperties;
}
// * * * * * * * * * * * * * * * * * * * * * * * * * * * * * * * * * * * * * //

decompositionModel          localKnudsen;

timeProperties
{
    decompositionInterval           100;
    resetAtDecomposition            on;
    resetAtDecompositionUntilTime   1e-4;
}

localKnudsenProperties
{
    breakdownMax            0.05;
    theta                   0.2;
    smoothingPasses         10;
}

// ************************************************************************* //
