/*--------------------------------*- C++ -*----------------------------------*\
| =========                 |                                                 |
| \\      /  F ield         | OpenFOAM: The Open Source CFD Toolbox           |
|  \\    /   O peration     | Version:  1.7.1                                 |
|   \\  /    A nd           | Web:      www.OpenFOAM.com                      |
|    \\/     M anipulation  |                                                 |
\*---------------------------------------------------------------------------*/
FoamFile
{
    version     2.0;
    format      ascii;
    class       dictionary;
    location    "constant";
    object      uspProperties;
}
// * * * * * * * * * * * * * * * * * * * * * * * * * * * * * * * * * * * * * //

solution
{
    active          yes;
    coupled         yes;
    cellValueSourceCorrection no;
    calcFrequency   1;
    maxTrackTime    1e9;
    sourceTerms
    {
        resetOnStartup  no;
        schemes
        {}
    }
}

// General Properties
// ~~~~~~~~~~~~~~~~~~
nEquivalentParticles            5000000;
adsorption                      false;
chargedParticles                true;
chemicalReactions               true;


//Collision Partner Selection Model
// ~~~~~~~~~~~~~~~~~~~~~~~~~~~~~~~~
collisionPartnerSelectionModel      noTimeCounterSubCycled;

noTimeCounterSubCycledProperties
{
	nSubCycles	50;
}

// Axisymmetric Properties
// ~~~~~~~~~~~~~~~~~~
axisymmetricSimulation      false;


// Binary Collision Model
// ~~~~~~~~~~~~~~~~~~~~~~
BinaryCollisionModel            LarsenBorgnakkeVariableHardSphere;

LarsenBorgnakkeVariableHardSphereCoeffs
{
    Tref                                    273;
    rotationalRelaxationCollisionNumber     1.0;
    electronicRelaxationCollisionNumber     1.0;
}

// Molecular species
// ~~~~~~~~~~~~~~~~~
typeIdList                      (N2 O2 NO N O N2+ O2+ NO+ N+ O+ E-);

moleculeProperties
{
    N2
    {
        mass                                        46.5e-27;
        diameter                                    4.17e-10;
        rotationalDegreesOfFreedom                  2;
        vibrationalModes                            1;
        omega                                       0.74;
        alpha                                       1.0;
        characteristicVibrationalTemperature        (3371);
        dissociationTemperature                     (113500);
        ionisationTemperature                       180798.3;
        charDissQuantumLevel                        (33);
        Zref                                        (52560);
        referenceTempForZref                        (3371);
        charge                                      0;
        numberOfElectronicLevels                    15;
        degeneracyList                              (1 3 6 6 3 1 2 2 5 1 6 6 10 6 6);
        electronicEnergyList                        (0 9.972e-19 1.1843e-18 1.1881e-18 1.3165e-18 1.3538e-18
                                                    1.3763e-18 1.4483e-18 1.5415e-18 1.6925e-18 1.7242e-18
                                                    1.7707e-18 1.8474e-18 1.9388e-18 2.0778e-18);
    }

    O2
    {
        mass                                        53.12e-27;
        diameter                                    4.07e-10;
        rotationalDegreesOfFreedom                  2;
        vibrationalModes                            1;
        omega                                       0.77;
        alpha                                       1.0;
        characteristicVibrationalTemperature        (2256);
        dissociationTemperature                     (59500);
        ionisationTemperature                       140066.5;
        charDissQuantumLevel                        (26);
        Zref                                        (17900);
        referenceTempForZref                        (2256);
        charge                                      0;
        numberOfElectronicLevels                    7;
        degeneracyList                              (3 2 1 1 6 3 3);
        electronicEnergyList                        (0 1.5728e-19 2.6211e-19 6.5663e-19 6.8912e-19
                                                    7.0306e-19 9.9267e-19);
    }

    NO
    {
        mass                                        49.81e-27;
        diameter                                    4.2e-10;
        rotationalDegreesOfFreedom                  2;
        vibrationalModes                            1;
        viscosityCoefficient                        1.774e-5;
        omega                                       0.79;
        alpha                                       1.0;
        characteristicVibrationalTemperature        (2719);
        dissociationTemperature                     (75500);
        ionisationTemperature                       107457.8;
        charDissQuantumLevel                        (27);
        Zref                                        (14000);
        referenceTempForZref                        (2719);
        charge                                      0;
        numberOfElectronicLevels                    16;
        degeneracyList                              (4 8 2 4 4 4 4 2 4 2 4 4 2 2 2 4);
        electronicEnergyList                        (0 7.5484e-19 8.7218e-19 9.1115e-19 9.5349e-19 9.7336e-19
                                                    1.0343e-18 1.0533e-18 1.1979e-18 1.2032e-18 1.2269e-18
                                                    1.2401e-18 1.2410e-18 1.2485e-18 1.2515e-18 1.2580e-18);
    }

    N
    {
        mass                                        23.25e-27;
        diameter                                    3.00e-10;
        rotationalDegreesOfFreedom                  0;
        vibrationalModes                            0;
        omega                                       0.8;
        alpha                                       1.0;
        characteristicVibrationalTemperature        ();
        dissociationTemperature                     ();
        ionisationTemperature                       168613.6;
        charDissQuantumLevel                        ();
        Zref                                        ();
        referenceTempForZref                        ();
        charge                                      0;
        numberOfElectronicLevels                    35;
        degeneracyList                              (4 10 6 12 6 12 2 20 12 4 10 6 10 12 6 6 28 14 12 20 10 2 20 12 10
                                                    4 6 90 126 450 648 822 1152 1458 1800);
        electronicEnergyList                        (0 3.8195e-19 5.7287e-19 1.6554e-18 1.7122e-18 1.7507e-18
                                                    1.8589e-18 1.8839e-18 1.8973e-18 1.9219e-18 1.9235e-18 1.9426e-18
                                                    1.9798e-18 2.0598e-18 2.0698e-18 2.0784e-18 2.0802e-18 2.0828e-18
                                                    2.08285e-18 2.0859e-18 2.0884e-18 2.1151e-18 2.122e-18 2.1258e-18
                                                    2.13e-18 2.1343e-18 2.1377e-18 2.1912e-18 2.1946e-18 2.2368e-18
                                                    2.2703e-18 2.2864e-18 2.2968e-18 2.304e-18 2.309e-18);
    }

    O
    {
        mass                                        26.56e-27;
        diameter                                    3.00e-10;
        rotationalDegreesOfFreedom                  0;
        vibrationalModes                            0;
        omega                                       0.8;
        alpha                                       1.0;
        characteristicVibrationalTemperature        ();
        dissociationTemperature                     ();
        ionisationTemperature                       158053.5;
        charDissQuantumLevel                        ();
        Zref                                        ();
        referenceTempForZref                        ();
        charge                                      0;
        numberOfElectronicLevels                    32;
        degeneracyList                              (9 5 1 5 3 15 9 5 3 25 15 15 9 15 5 3 5 25 15 35 21 15 9 25
                                                    15 35 21 288 392 512 648 800);
        electronicEnergyList                        (0 3.15e-19 6.71e-19 1.47e-18 1.53e-18 1.72e-18
                                                    1.76e-18 1.90e-18 1.91e-18 1.94e-18 1.945e-18 1.97e-18
                                                    1.98e-18 2.01e-18 2.03e-18 2.035e-18 2.04e-18 2.0435e-18
                                                    2.047e-18 2.05e-18 2.055e-18 2.06e-18 2.065e-18 2.09e-18
                                                    2.0925e-18 2.095e-18 2.0975e-18 2.12e-18 2.14e-18 2.15e-18
                                                    2.155e-18 2.16e-18);
    }

    N2+
    {
        mass                                        46.499089e-27;
        diameter                                    4.17e-10;
        rotationalDegreesOfFreedom                  2;
        vibrationalModes                            1;
        omega                                       0.74;
        alpha                                       1.0;
        characteristicVibrationalTemperature        (3371);
        dissociationTemperature                     (113500);
        ionisationTemperature                       0;
        charDissQuantumLevel                        (33);
        Zref                                        (52560);
        referenceTempForZref                        (3371);
        numberOfElectronicLevels                    17;
        charge                                      1;
        degeneracyList                              (2 4 2 4 8 8 4 4 4 4 8 8 4 4 2 2 4);
        electronicEnergyList                        (0 1.8211e-19 5.0578e-19 5.0654e-19 8.2636e-19 9.1377e-19
                                                    1.0492e-18 1.0528e-18 1.1323e-18 1.1621e-18 1.1919e-18
                                                    1.2316e-18 1.2713e-18 1.2733e-18 1.2831e-18 1.3309e-18
                                                    1.4302e-18);
    }

    O2+
    {
        mass                                        53.119089e-27;
        diameter                                    4.07e-10;
        rotationalDegreesOfFreedom                  2;
        vibrationalModes                            1;
        omega                                       0.77;
        alpha                                       1.0;
        characteristicVibrationalTemperature        (2256);
        dissociationTemperature                     (59500);
        ionisationTemperature                       0;
        charDissQuantumLevel                        (26);
        Zref                                        (17900);
        referenceTempForZref                        (2256);
        charge                                      1;
        numberOfElectronicLevels                    15;
        degeneracyList                              (4 8 4 6 4 2 4 4 4 4 8 4 2 2 4);
        electronicEnergyList                        (0 6.538e-19 8.059e-19 8.065e-19 8.6013e-19 9.2966e-19
                                                    9.8329e-19 1.0568e-18 1.2177e-18 1.2276e-18 1.3011e-18
                                                    1.3111e-18 1.3243e-18 1.3786e-18 1.4302e-18 );
    }

    NO+
    {
        mass                                        49.809089e-27;
        diameter                                    4.2e-10;
        rotationalDegreesOfFreedom                  2;
        vibrationalModes                            1;
        viscosityCoefficient                        1.774e-5;
        omega                                       0.79;
        alpha                                       1.0;
        characteristicVibrationalTemperature        (2719);
        dissociationTemperature                     (75500);
        ionisationTemperature                       0;
        charDissQuantumLevel                        (27);
        Zref                                        (14000);
        referenceTempForZref                        (2719);
        charge                                      1;
        numberOfElectronicLevels                    8;
        degeneracyList                              (1 3 6 6 3 1 2 2);
        electronicEnergyList                        (0 1.0367e-18 1.1771e-18 1.2293e-18 1.3457e-18 1.3814e-18
                                                    1.4194e-18 1.4595e-18);
    }

    N+
    {
        mass                                        23.249089e-27;
        diameter                                    3.00e-10;
        rotationalDegreesOfFreedom                  0;
        vibrationalModes                            0;
        omega                                       0.8;
        alpha                                       1.0;
        characteristicVibrationalTemperature        ();
        dissociationTemperature                     ();
        ionisationTemperature                       0;
        charDissQuantumLevel                        ();
        Zref                                        ();
        referenceTempForZref                        ();
        charge                                      1;
        numberOfElectronicLevels                    7;
        degeneracyList                              (9 5 1 15 9 5 12);
        electronicEnergyList                        (0 3.0424e-19 6.4929e-19 1.8324e-18 2.1696e-18 2.8642e-18
                                                    2.9610e-18);
    }

    O+
    {
        mass                                        26.559089e-27;
        diameter                                    3.00e-10;
        rotationalDegreesOfFreedom                  0;
        vibrationalModes                            0;
        omega                                       0.8;
        alpha                                       1.0;
        characteristicVibrationalTemperature        ();
        dissociationTemperature                     ();
        ionisationTemperature                       0;
        charDissQuantumLevel                        ();
        Zref                                        ();
        referenceTempForZref                        ();
        charge                                      1;
        numberOfElectronicLevels                    3;
        degeneracyList                              (4 10 6);
        electronicEnergyList                        (0 5.327e-19 8.0386e-19);
    }

    E-
    {
        mass                                        9.11e-31;
        diameter                                    1.00e-10;
        rotationalDegreesOfFreedom                  0;
        vibrationalModes                            0;
        omega                                       0.7;
        alpha                                       1.0;
        characteristicVibrationalTemperature        ();
        dissociationTemperature                     ();
        ionisationTemperature                       0;
        charDissQuantumLevel                        ();
        Zref                                        ();
        referenceTempForZref                        ();
        charge                                      -1;
        numberOfElectronicLevels                    1;
        degeneracyList                              (0);
        electronicEnergyList                        (0);
    }

}


// ************************************************************************* //
