/*---------------------------------------------------------------------------*\
| =========                 |                                                 |
| \\      /  F ield         | OpenFOAM: The Open Source CFD Toolbox           |
|  \\    /   O peration     | Version:  1.3                                   |
|   \\  /    A nd           | Web:      http://www.openfoam.org               |
|    \\/     M anipulation  |                                                 |
\*---------------------------------------------------------------------------*/
FoamFile
{
    version     2.0;
    format      ascii;
    class       dictionary;
    location    "system";
    object      boundariesDict;
}
// * * * * * * * * * * * * * * * * * * * * * * * * * * * * * * * * * * * * * //

uspPatchBoundaries
(
    boundary
    {
        patchBoundaryProperties
        {
            patch          plate;
        }

        boundaryModel        uspDiffuseWallPatch;

        uspDiffuseWallPatchProperties
        {
            velocity             (0 0 0);
            temperature            290;
        }
    }

    boundary
    {
        patchBoundaryProperties
        {
            patch                defaultFaces;
        }

        boundaryModel        uspSpecularWallPatch;

        uspSpecularWallPatchProperties
        {
        }
    }

    boundary
    {
        patchBoundaryProperties
        {
            patch               inlet;
        }

        boundaryModel   uspDeletionPatch;

        uspDeletionPatchProperties
        {
            allSpecies		yes;
        }
    }
);

uspCyclicBoundaries
(

);

uspGeneralBoundaries
(
    boundary
    {
        generalBoundaryProperties
        {
            patch                           inlet;
        }

        boundaryModel   uspFreeStreamInflowPatch;

        uspFreeStreamInflowPatchProperties
        {
			translationalTemperature			13.32;
			rotationalTemperature			    13.32;
			vibrationalTemperature			    0;
            electronicTemperature               0;
			velocity			                (1503 0 0);
			typeIds				                (N2);
			numberDensities
			{
				N2		3.716e20;
			}
		}
    }

);


// ************************************************************************* //
