/*--------------------------------*- C++ -*----------------------------------*\
| =========                 |                                                 |
| \\      /  F ield         | OpenFOAM: The Open Source CFD Toolbox           |
|  \\    /   O peration     | Version:  1.7.1                                 |
|   \\  /    A nd           | Web:      www.OpenFOAM.com                      |
|    \\/     M anipulation  |                                                 |
\*---------------------------------------------------------------------------*/
FoamFile
{
    version     2.0;
    format      ascii;
    class       dictionary;
    location    "system";
    object      fieldPropertiesDict;
}
// * * * * * * * * * * * * * * * * * * * * * * * * * * * * * * * * * * * * * //


uspFields
(
     field
     {
         fieldModel          	uspVolFields;
 
         timeProperties
         {
         	timeOption          write;
 	    	resetAtOutput		off;
         }
         
         uspVolFieldsProperties
         {
            field                   N2;
         	typeIds                 (N2);
         	measureMeanFreePath     true;
         	mfpReferenceTemperature 273;
         	measureErrors           true;
         }
     }
);

// ************************************************************************* //
